tdcosim/data/transmission/68bus/case68.raw
0,   100.00, 33, 0, 0, 60.00     / PSS(R)E-33.3    TUE, FEB 11 2020  15:02


     1,'1           ', 138.0000,2,   1,   1,   1,1.04500,  -9.4831,1.10000,0.90000,1.10000,0.90000
     2,'2           ', 138.0000,2,   1,   1,   1,0.98000,  -2.8451,1.10000,0.90000,1.10000,0.90000
     3,'3           ', 138.0000,2,   1,   1,   1,0.98300,  -0.5419,1.10000,0.90000,1.10000,0.90000
     4,'4           ', 138.0000,2,   1,   1,   1,0.99700,  -0.2866,1.10000,0.90000,1.10000,0.90000
     5,'5           ', 138.0000,2,   1,   1,   1,1.01100,  -1.7481,1.10000,0.90000,1.10000,0.90000
     6,'6           ', 138.0000,2,   1,   1,   1,1.05000,   2.4513,1.10000,0.90000,1.10000,0.90000
     7,'7           ', 138.0000,2,   1,   1,   1,1.06300,   4.7947,1.10000,0.90000,1.10000,0.90000
     8,'8           ', 138.0000,2,   1,   1,   1,1.03000,  -3.6365,1.10000,0.90000,1.10000,0.90000
     9,'9           ', 138.0000,2,   1,   1,   1,1.02500,   1.5241,1.10000,0.90000,1.10000,0.90000
    10,'10          ', 138.0000,2,   2,   1,   1,1.01000, -10.1829,1.10000,0.90000,1.10000,0.90000
    11,'11          ', 138.0000,2,   2,   1,   1,1.00000,  -8.0172,1.10000,0.90000,1.10000,0.90000
    12,'12          ', 138.0000,2,   2,   1,   1,1.01560, -22.1230,1.10000,0.90000,1.10000,0.90000
    13,'13          ', 138.0000,2,   2,   1,   1,1.01100, -27.6575,1.10000,0.90000,1.10000,0.90000
    14,'14          ', 138.0000,2,   3,   1,   1,1.00000,  10.6373,1.10000,0.90000,1.10000,0.90000
    15,'15          ', 138.0000,2,   4,   1,   1,1.00000,  -0.1256,1.10000,0.90000,1.10000,0.90000
    16,'16          ', 138.0000,3,   5,   1,   1,1.00000,   0.0000,1.10000,0.90000,1.10000,0.90000
    17,'17          ', 138.0000,1,   2,   1,   1,0.99122, -34.4487,1.10000,0.90000,1.10000,0.90000
    18,'18          ', 138.0000,1,   5,   1,   1,1.00359,  -5.7785,1.10000,0.90000,1.10000,0.90000
    19,'19          ', 138.0000,1,   1,   1,   1,0.99150,  -5.4807,1.10000,0.90000,1.10000,0.90000
    20,'20          ', 138.0000,1,   1,   1,   1,0.98716,  -6.9058,1.10000,0.90000,1.10000,0.90000
    21,'21          ', 138.0000,1,   1,   1,   1,0.99890,  -7.8319,1.10000,0.90000,1.10000,0.90000
    22,'22          ', 138.0000,1,   1,   1,   1,1.02340,  -2.8938,1.10000,0.90000,1.10000,0.90000
    23,'23          ', 138.0000,1,   1,   1,   1,1.02201,  -3.2148,1.10000,0.90000,1.10000,0.90000
    24,'24          ', 138.0000,1,   1,   1,   1,1.00178, -10.4512,1.10000,0.90000,1.10000,0.90000
    25,'25          ', 138.0000,1,   1,   1,   1,1.03162, -10.4041,1.10000,0.90000,1.10000,0.90000
    26,'26          ', 138.0000,1,   1,   1,   1,1.02422, -11.4018,1.10000,0.90000,1.10000,0.90000
    27,'27          ', 138.0000,1,   1,   1,   1,1.00911, -13.1343,1.10000,0.90000,1.10000,0.90000
    28,'28          ', 138.0000,1,   1,   1,   1,1.02221,  -8.0883,1.10000,0.90000,1.10000,0.90000
    29,'29          ', 138.0000,1,   1,   1,   1,1.02237,  -5.3050,1.10000,0.90000,1.10000,0.90000
    30,'30          ', 138.0000,1,   2,   1,   1,1.02022, -19.4608,1.10000,0.90000,1.10000,0.90000
    31,'31          ', 138.0000,1,   2,   1,   1,1.02591, -17.3903,1.10000,0.90000,1.10000,0.90000
    32,'32          ', 138.0000,1,   2,   1,   1,1.01290, -15.3912,1.10000,0.90000,1.10000,0.90000
    33,'33          ', 138.0000,1,   2,   1,   1,1.01882, -19.5507,1.10000,0.90000,1.10000,0.90000
    34,'34          ', 138.0000,1,   2,   1,   1,1.02782, -25.3905,1.10000,0.90000,1.10000,0.90000
    35,'35          ', 138.0000,1,   2,   1,   1,1.03892, -26.3680,1.10000,0.90000,1.10000,0.90000
    36,'36          ', 138.0000,1,   2,   1,   1,1.00405, -27.8214,1.10000,0.90000,1.10000,0.90000
    37,'37          ', 138.0000,1,   1,   1,   1,0.99999, -12.1880,1.10000,0.90000,1.10000,0.90000
    38,'38          ', 138.0000,1,   2,   1,   1,1.03016, -18.5861,1.10000,0.90000,1.10000,0.90000
    39,'39          ', 138.0000,1,   2,   1,   1,1.01294, -37.9707,1.10000,0.90000,1.10000,0.90000
    40,'40          ', 138.0000,1,   2,   1,   1,1.07599, -13.6035,1.10000,0.90000,1.10000,0.90000
    41,'41          ', 138.0000,1,   3,   1,   1,1.00021,   9.1033,1.10000,0.90000,1.10000,0.90000
    42,'42          ', 138.0000,1,   4,   1,   1,0.99902,  -0.9859,1.10000,0.90000,1.10000,0.90000
    43,'43          ', 138.0000,1,   2,   1,   1,1.00525, -36.4806,1.10000,0.90000,1.10000,0.90000
    44,'44          ', 138.0000,1,   2,   1,   1,1.00574, -36.5630,1.10000,0.90000,1.10000,0.90000
    45,'45          ', 138.0000,1,   2,   1,   1,1.05262, -28.6374,1.10000,0.90000,1.10000,0.90000
    46,'46          ', 138.0000,1,   2,   1,   1,1.02635, -20.1967,1.10000,0.90000,1.10000,0.90000
    47,'47          ', 138.0000,1,   2,   1,   1,1.05847, -19.2018,1.10000,0.90000,1.10000,0.90000
    48,'48          ', 138.0000,1,   2,   1,   1,1.07116, -18.1169,1.10000,0.90000,1.10000,0.90000
    49,'49          ', 138.0000,1,   2,   1,   1,1.02389, -19.5010,1.10000,0.90000,1.10000,0.90000
    50,'50          ', 138.0000,1,   2,   1,   1,1.06484, -18.6952,1.10000,0.90000,1.10000,0.90000
    51,'51          ', 138.0000,1,   2,   1,   1,1.06887, -26.6713,1.10000,0.90000,1.10000,0.90000
    52,'52          ', 138.0000,1,   1,   1,   1,0.99902, -13.1481,1.10000,0.90000,1.10000,0.90000
    53,'53          ', 138.0000,1,   2,   1,   1,1.02899, -18.7386,1.10000,0.90000,1.10000,0.90000
    54,'54          ', 138.0000,1,   1,   1,   1,1.02150, -11.9126,1.10000,0.90000,1.10000,0.90000
    55,'55          ', 138.0000,1,   1,   1,   1,1.00120, -13.5077,1.10000,0.90000,1.10000,0.90000
    56,'56          ', 138.0000,1,   1,   1,   1,0.97529, -12.4347,1.10000,0.90000,1.10000,0.90000
    57,'57          ', 138.0000,1,   1,   1,   1,0.96873, -11.8111,1.10000,0.90000,1.10000,0.90000
    58,'58          ', 138.0000,1,   1,   1,   1,0.96839, -11.0995,1.10000,0.90000,1.10000,0.90000
    59,'59          ', 138.0000,1,   1,   1,   1,0.96258, -13.6785,1.10000,0.90000,1.10000,0.90000
    60,'60          ', 138.0000,1,   1,   1,   1,0.96431, -14.3259,1.10000,0.90000,1.10000,0.90000
    61,'61          ', 138.0000,1,   2,   1,   1,1.00195, -22.6762,1.10000,0.90000,1.10000,0.90000
    62,'62          ', 138.0000,1,   1,   1,   1,0.97222,  -8.3599,1.10000,0.90000,1.10000,0.90000
    63,'63          ', 138.0000,1,   1,   1,   1,0.96962,  -9.2967,1.10000,0.90000,1.10000,0.90000
    64,'64          ', 138.0000,1,   1,   1,   1,0.95045,  -9.2845,1.10000,0.90000,1.10000,0.90000
    65,'65          ', 138.0000,1,   1,   1,   1,0.97170,  -9.1168,1.10000,0.90000,1.10000,0.90000
    66,'66          ', 138.0000,1,   1,   1,   1,0.97504, -10.8601,1.10000,0.90000,1.10000,0.90000
    67,'67          ', 138.0000,1,   1,   1,   1,0.97769, -11.8974,1.10000,0.90000,1.10000,0.90000
    68,'68          ', 138.0000,1,   1,   1,   1,0.99424, -10.6339,1.10000,0.90000,1.10000,0.90000
0 / END OF BUS DATA, BEGIN LOAD DATA
     3,'1 ',1,   1,   1,     0.000,    50.000,     0.000,     0.000,     0.000,     0.000,   1,1,0
    17,'1 ',1,   2,   1,  6000.000,   300.000,     0.000,     0.000,     0.000,     0.000,   1,1,0
    18,'1 ',1,   5,   1,  2470.000,   123.000,     0.000,     0.000,     0.000,     0.000,   1,1,0
    20,'1 ',1,   1,   1,   680.000,   103.000,     0.000,     0.000,     0.000,     0.000,   1,1,0
    21,'1 ',1,   1,   1,   274.000,   115.000,     0.000,     0.000,     0.000,     0.000,   1,1,0
    23,'1 ',1,   1,   1,   248.000,    85.000,     0.000,     0.000,     0.000,     0.000,   1,1,0
    24,'1 ',1,   1,   1,   309.000,   -92.000,     0.000,     0.000,     0.000,     0.000,   1,1,0
    25,'1 ',1,   1,   1,   224.000,    47.000,     0.000,     0.000,     0.000,     0.000,   1,1,0
    26,'1 ',1,   1,   1,   139.000,    17.000,     0.000,     0.000,     0.000,     0.000,   1,1,0
    27,'1 ',1,   1,   1,   281.000,    76.000,     0.000,     0.000,     0.000,     0.000,   1,1,0
    28,'1 ',1,   1,   1,   206.000,    28.000,     0.000,     0.000,     0.000,     0.000,   1,1,0
    29,'1 ',1,   1,   1,   284.000,    27.000,     0.000,     0.000,     0.000,     0.000,   1,1,0
    33,'1 ',1,   2,   1,   112.000,     0.000,     0.000,     0.000,     0.000,     0.000,   1,1,0
    36,'1 ',1,   2,   1,   102.000,   -19.460,     0.000,     0.000,     0.000,     0.000,   1,1,0
    39,'1 ',1,   2,   1,   267.000,    12.600,     0.000,     0.000,     0.000,     0.000,   1,1,0
    40,'1 ',1,   2,   1,    65.630,    23.530,     0.000,     0.000,     0.000,     0.000,   1,1,0
    41,'1 ',1,   3,   1,  1000.000,   250.000,     0.000,     0.000,     0.000,     0.000,   1,1,0
    42,'1 ',1,   4,   1,  1150.000,   250.000,     0.000,     0.000,     0.000,     0.000,   1,1,0
    44,'1 ',1,   2,   1,   267.550,     4.840,     0.000,     0.000,     0.000,     0.000,   1,1,0
    45,'1 ',1,   2,   1,   208.000,    21.000,     0.000,     0.000,     0.000,     0.000,   1,1,0
    46,'1 ',1,   2,   1,   150.700,    28.500,     0.000,     0.000,     0.000,     0.000,   1,1,0
    47,'1 ',1,   2,   1,   203.120,    32.590,     0.000,     0.000,     0.000,     0.000,   1,1,0
    48,'1 ',1,   2,   1,   241.200,     2.200,     0.000,     0.000,     0.000,     0.000,   1,1,0
    49,'1 ',1,   2,   1,   164.000,    29.000,     0.000,     0.000,     0.000,     0.000,   1,1,0
    50,'1 ',1,   2,   1,   100.000,  -147.000,     0.000,     0.000,     0.000,     0.000,   1,1,0
    51,'1 ',1,   2,   1,   337.000,  -122.000,     0.000,     0.000,     0.000,     0.000,   1,1,0
    52,'1 ',1,   1,   1,   158.000,    30.000,     0.000,     0.000,     0.000,     0.000,   1,1,0
    53,'1 ',1,   2,   1,   252.700,   118.560,     0.000,     0.000,     0.000,     0.000,   1,1,0
    55,'1 ',1,   1,   1,   322.000,     2.000,     0.000,     0.000,     0.000,     0.000,   1,1,0
    56,'1 ',1,   1,   1,   200.000,    73.600,     0.000,     0.000,     0.000,     0.000,   1,1,0
    59,'1 ',1,   1,   1,   234.000,    84.000,     0.000,     0.000,     0.000,     0.000,   1,1,0
    60,'1 ',1,   1,   1,   208.800,    70.800,     0.000,     0.000,     0.000,     0.000,   1,1,0
    61,'1 ',1,   2,   1,   104.000,   125.000,     0.000,     0.000,     0.000,     0.000,   1,1,0
    64,'1 ',1,   1,   1,     9.000,    88.000,     0.000,     0.000,     0.000,     0.000,   1,1,0
    67,'1 ',1,   1,   1,   320.000,   153.000,     0.000,     0.000,     0.000,     0.000,   1,1,0
    68,'1 ',1,   1,   1,   329.000,    32.000,     0.000,     0.000,     0.000,     0.000,   1,1,0
0 / END OF LOAD DATA, BEGIN FIXED SHUNT DATA
0 / END OF FIXED SHUNT DATA, BEGIN GENERATOR DATA
     1,'1 ',   250.000,   140.977,  9900.000, -9900.000,1.04500,     0,   200.000, 0.00000E+0, 5.00000E-2, 0.00000E+0, 0.00000E+0,1.00000,1,  100.0,  9999.000,     0.000,   1,1.0000
     2,'1 ',   545.000,    84.830,  9900.000, -9900.000,0.98000,     0,   200.000, 0.00000E+0, 1.00000E-1, 0.00000E+0, 0.00000E+0,1.00000,1,  100.0,  9999.000,     0.000,   1,1.0000
     3,'1 ',   650.000,   147.399,  9900.000, -9900.000,0.98300,     0,   200.000, 0.00000E+0, 9.00000E-2, 0.00000E+0, 0.00000E+0,1.00000,1,  100.0,  9999.000,     0.000,   1,1.0000
     4,'1 ',   632.000,    36.071,  9900.000, -9900.000,0.99700,     0,   200.000, 0.00000E+0, 7.00000E-2, 0.00000E+0, 0.00000E+0,1.00000,1,  100.0,  9999.000,     0.000,   1,1.0000
     5,'1 ',   505.000,   131.105,  9900.000, -9900.000,1.01100,     0,   200.000, 0.00000E+0, 1.00000E-1, 0.00000E+0, 0.00000E+0,1.00000,1,  100.0,  9999.000,     0.000,   1,1.0000
     6,'1 ',   700.000,   227.988,  9900.000, -9900.000,1.05000,     0,   200.000, 0.00000E+0, 8.00000E-2, 0.00000E+0, 0.00000E+0,1.00000,1,  100.0,  9999.000,     0.000,   1,1.0000
     7,'1 ',   560.000,   188.847,  9900.000, -9900.000,1.06300,     0,   200.000, 0.00000E+0, 8.00000E-2, 0.00000E+0, 0.00000E+0,1.00000,1,  100.0,  9999.000,     0.000,   1,1.0000
     8,'1 ',   540.000,    10.737,  9900.000, -9900.000,1.03000,     0,   200.000, 0.00000E+0, 9.00000E-2, 0.00000E+0, 0.00000E+0,1.00000,1,  100.0,  9999.000,     0.000,   1,1.0000
     9,'1 ',   800.000,    23.907,  9900.000, -9900.000,1.02500,     0,   200.000, 0.00000E+0, 9.00000E-2, 0.00000E+0, 0.00000E+0,1.00000,1,  100.0,  9999.000,     0.000,   1,1.0000
    10,'1 ',   500.000,   -30.325,  9900.000, -9900.000,1.01000,     0,   200.000, 0.00000E+0, 8.00000E-2, 0.00000E+0, 0.00000E+0,1.00000,1,  100.0,  9999.000,     0.000,   1,1.0000
    11,'1 ',  1000.000,   -34.762,  9900.000, -9900.000,1.00000,     0,   600.000, 0.00000E+0, 7.20000E-2, 0.00000E+0, 0.00000E+0,1.00000,1,  100.0,  9999.000,     0.000,   1,1.0000
    12,'1 ',  1350.000,   223.638,  9900.000, -9900.000,1.01560,     0,   200.000, 0.00000E+0, 5.00000E-2, 0.00000E+0, 0.00000E+0,1.00000,1,  100.0,  9999.000,     0.000,   1,1.0000
    13,'1 ',  3591.000,   818.961,  9900.000, -9900.000,1.01100,     0,  6000.000, 0.00000E+0, 1.20000E-1, 0.00000E+0, 0.00000E+0,1.00000,1,  100.0,  9999.000,     0.000,   1,1.0000
    14,'1 ',  1785.000,     9.806,  9900.000, -9900.000,1.00000,     0,  3000.000, 0.00000E+0, 6.90000E-2, 0.00000E+0, 0.00000E+0,1.00000,1,  100.0,  9999.000,     0.000,   1,1.0000
    15,'1 ',  1000.000,    72.541,  9900.000, -9900.000,1.00000,     0,  3000.000, 0.00000E+0, 6.90000E-2, 0.00000E+0, 0.00000E+0,1.00000,1,  100.0,  9999.000,     0.000,   1,1.0000
    16,'1 ',  3368.149,    50.423,  9900.000, -9900.000,1.00000,     0,  6000.000, 0.00000E+0, 1.65000E-1, 0.00000E+0, 0.00000E+0,1.00000,1,  100.0,  9999.000,     0.000,   1,1.0000
0 / END OF GENERATOR DATA, BEGIN BRANCH DATA
     7,    23,'1 ', 5.00000E-4, 2.72000E-2,   0.00000,    0.00,    0.00,    0.00,  0.00000,  0.00000,  0.00000,  0.00000,1,1,   0.00,   1,1.0000
    17,    36,'1 ', 5.00000E-4, 4.50000E-3,   0.32000,    0.00,    0.00,    0.00,  0.00000,  0.00000,  0.00000,  0.00000,1,1,   0.00,   1,1.0000
    17,    43,'1 ', 5.00000E-4, 2.76000E-2,   0.00000,    0.00,    0.00,    0.00,  0.00000,  0.00000,  0.00000,  0.00000,1,1,   0.00,   1,1.0000
    18,    42,'1 ', 4.00000E-3, 6.00000E-2,   2.25000,    0.00,    0.00,    0.00,  0.00000,  0.00000,  0.00000,  0.00000,1,1,   0.00,   1,1.0000
    18,    49,'1 ', 7.60000E-3, 1.14100E-1,   1.16000,    0.00,    0.00,    0.00,  0.00000,  0.00000,  0.00000,  0.00000,1,1,   0.00,   1,1.0000
    18,    50,'1 ', 1.20000E-3, 2.88000E-2,   2.06000,    0.00,    0.00,    0.00,  0.00000,  0.00000,  0.00000,  0.00000,1,1,   0.00,   1,1.0000
    19,    68,'1 ', 1.60000E-3, 1.95000E-2,   0.30400,    0.00,    0.00,    0.00,  0.00000,  0.00000,  0.00000,  0.00000,1,1,   0.00,   1,1.0000
    21,    22,'1 ', 8.00000E-4, 1.40000E-2,   0.25650,    0.00,    0.00,    0.00,  0.00000,  0.00000,  0.00000,  0.00000,1,1,   0.00,   1,1.0000
    21,    68,'1 ', 8.00000E-4, 1.35000E-2,   0.25480,    0.00,    0.00,    0.00,  0.00000,  0.00000,  0.00000,  0.00000,1,1,   0.00,   1,1.0000
    22,    23,'1 ', 6.00000E-4, 9.60000E-3,   0.18460,    0.00,    0.00,    0.00,  0.00000,  0.00000,  0.00000,  0.00000,1,1,   0.00,   1,1.0000
    23,    24,'1 ', 2.20000E-3, 3.50000E-2,   0.36100,    0.00,    0.00,    0.00,  0.00000,  0.00000,  0.00000,  0.00000,1,1,   0.00,   1,1.0000
    24,    68,'1 ', 3.00000E-4, 5.90000E-3,   0.06800,    0.00,    0.00,    0.00,  0.00000,  0.00000,  0.00000,  0.00000,1,1,   0.00,   1,1.0000
    25,    26,'1 ', 3.20000E-3, 3.23000E-2,   0.53100,    0.00,    0.00,    0.00,  0.00000,  0.00000,  0.00000,  0.00000,1,1,   0.00,   1,1.0000
    25,    54,'1 ', 7.00000E-3, 8.60000E-3,   0.14600,    0.00,    0.00,    0.00,  0.00000,  0.00000,  0.00000,  0.00000,1,1,   0.00,   1,1.0000
    26,    27,'1 ', 1.40000E-3, 1.47000E-2,   0.23960,    0.00,    0.00,    0.00,  0.00000,  0.00000,  0.00000,  0.00000,1,1,   0.00,   1,1.0000
    26,    28,'1 ', 4.30000E-3, 4.74000E-2,   0.78020,    0.00,    0.00,    0.00,  0.00000,  0.00000,  0.00000,  0.00000,1,1,   0.00,   1,1.0000
    26,    29,'1 ', 5.70000E-3, 6.25000E-2,   1.02900,    0.00,    0.00,    0.00,  0.00000,  0.00000,  0.00000,  0.00000,1,1,   0.00,   1,1.0000
    27,    37,'1 ', 1.30000E-3, 1.73000E-2,   0.32160,    0.00,    0.00,    0.00,  0.00000,  0.00000,  0.00000,  0.00000,1,1,   0.00,   1,1.0000
    27,    53,'1 ', 3.20000E-2, 3.20000E-1,   0.41000,    0.00,    0.00,    0.00,  0.00000,  0.00000,  0.00000,  0.00000,1,1,   0.00,   1,1.0000
    28,    29,'1 ', 1.40000E-3, 1.51000E-2,   0.24900,    0.00,    0.00,    0.00,  0.00000,  0.00000,  0.00000,  0.00000,1,2,   0.00,   1,1.0000
    30,    31,'1 ', 1.30000E-3, 1.87000E-2,   0.33300,    0.00,    0.00,    0.00,  0.00000,  0.00000,  0.00000,  0.00000,1,1,   0.00,   1,1.0000
    30,    32,'1 ', 2.40000E-3, 2.88000E-2,   0.48800,    0.00,    0.00,    0.00,  0.00000,  0.00000,  0.00000,  0.00000,1,1,   0.00,   1,1.0000
    30,    53,'1 ', 8.00000E-4, 7.40000E-3,   0.48000,    0.00,    0.00,    0.00,  0.00000,  0.00000,  0.00000,  0.00000,1,1,   0.00,   1,1.0000
    30,    61,'1 ', 9.50000E-4, 9.15000E-3,   0.58000,    0.00,    0.00,    0.00,  0.00000,  0.00000,  0.00000,  0.00000,1,1,   0.00,   1,1.0000
    31,    38,'1 ', 1.10000E-3, 1.47000E-2,   0.24700,    0.00,    0.00,    0.00,  0.00000,  0.00000,  0.00000,  0.00000,1,1,   0.00,   1,1.0000
    31,    53,'1 ', 1.60000E-3, 1.63000E-2,   0.25000,    0.00,    0.00,    0.00,  0.00000,  0.00000,  0.00000,  0.00000,1,1,   0.00,   1,1.0000
    32,    33,'1 ', 8.00000E-4, 9.90000E-3,   0.16800,    0.00,    0.00,    0.00,  0.00000,  0.00000,  0.00000,  0.00000,1,1,   0.00,   1,1.0000
    33,    34,'1 ', 1.10000E-3, 1.57000E-2,   0.20200,    0.00,    0.00,    0.00,  0.00000,  0.00000,  0.00000,  0.00000,1,1,   0.00,   1,1.0000
    33,    38,'1 ', 3.60000E-3, 4.44000E-2,   0.69300,    0.00,    0.00,    0.00,  0.00000,  0.00000,  0.00000,  0.00000,1,1,   0.00,   1,1.0000
    34,    36,'1 ', 3.30000E-3, 1.11000E-2,   1.45000,    0.00,    0.00,    0.00,  0.00000,  0.00000,  0.00000,  0.00000,1,1,   0.00,   1,1.0000
    35,    45,'1 ', 7.00000E-4, 1.75000E-2,   1.39000,    0.00,    0.00,    0.00,  0.00000,  0.00000,  0.00000,  0.00000,1,1,   0.00,   1,1.0000
    36,    61,'1 ', 1.10000E-3, 9.80000E-3,   0.68000,    0.00,    0.00,    0.00,  0.00000,  0.00000,  0.00000,  0.00000,1,1,   0.00,   1,1.0000
    37,    52,'1 ', 7.00000E-4, 8.20000E-3,   0.13190,    0.00,    0.00,    0.00,  0.00000,  0.00000,  0.00000,  0.00000,1,1,   0.00,   1,1.0000
    37,    68,'1 ', 7.00000E-4, 8.90000E-3,   0.13420,    0.00,    0.00,    0.00,  0.00000,  0.00000,  0.00000,  0.00000,1,1,   0.00,   1,1.0000
    38,    46,'1 ', 2.20000E-3, 2.84000E-2,   0.43000,    0.00,    0.00,    0.00,  0.00000,  0.00000,  0.00000,  0.00000,1,1,   0.00,   1,1.0000
    39,    44,'1 ', 0.00000E+0, 4.11000E-2,   0.00000,    0.00,    0.00,    0.00,  0.00000,  0.00000,  0.00000,  0.00000,1,1,   0.00,   1,1.0000
    39,    45,'1 ', 0.00000E+0, 8.39000E-2,   0.00000,    0.00,    0.00,    0.00,  0.00000,  0.00000,  0.00000,  0.00000,1,1,   0.00,   1,1.0000
    40,    41,'1 ', 6.00000E-3, 8.40000E-2,   3.15000,    0.00,    0.00,    0.00,  0.00000,  0.00000,  0.00000,  0.00000,1,1,   0.00,   1,1.0000
    40,    48,'1 ', 2.00000E-3, 2.20000E-2,   1.28000,    0.00,    0.00,    0.00,  0.00000,  0.00000,  0.00000,  0.00000,1,1,   0.00,   1,1.0000
    41,    42,'1 ', 4.00000E-3, 6.00000E-2,   2.25000,    0.00,    0.00,    0.00,  0.00000,  0.00000,  0.00000,  0.00000,1,1,   0.00,   1,1.0000
    43,    44,'1 ', 1.00000E-4, 1.10000E-3,   0.00000,    0.00,    0.00,    0.00,  0.00000,  0.00000,  0.00000,  0.00000,1,1,   0.00,   1,1.0000
    44,    45,'1 ', 2.50000E-3, 7.30000E-2,   0.00000,    0.00,    0.00,    0.00,  0.00000,  0.00000,  0.00000,  0.00000,1,1,   0.00,   1,1.0000
    45,    51,'1 ', 4.00000E-4, 1.05000E-2,   0.72000,    0.00,    0.00,    0.00,  0.00000,  0.00000,  0.00000,  0.00000,1,1,   0.00,   1,1.0000
    46,    49,'1 ', 1.80000E-3, 2.74000E-2,   0.27000,    0.00,    0.00,    0.00,  0.00000,  0.00000,  0.00000,  0.00000,1,1,   0.00,   1,1.0000
    47,    48,'1 ', 1.25000E-3, 1.34000E-2,   0.80000,    0.00,    0.00,    0.00,  0.00000,  0.00000,  0.00000,  0.00000,1,1,   0.00,   1,1.0000
    47,    53,'1 ', 1.30000E-3, 1.88000E-2,   1.31000,    0.00,    0.00,    0.00,  0.00000,  0.00000,  0.00000,  0.00000,1,1,   0.00,   1,1.0000
    50,    51,'1 ', 9.00000E-4, 2.21000E-2,   1.62000,    0.00,    0.00,    0.00,  0.00000,  0.00000,  0.00000,  0.00000,1,1,   0.00,   1,1.0000
    52,    55,'1 ', 1.10000E-3, 1.33000E-2,   0.21380,    0.00,    0.00,    0.00,  0.00000,  0.00000,  0.00000,  0.00000,1,1,   0.00,   1,1.0000
    53,    54,'1 ', 3.50000E-3, 4.11000E-2,   0.69870,    0.00,    0.00,    0.00,  0.00000,  0.00000,  0.00000,  0.00000,1,1,   0.00,   1,1.0000
    54,    55,'1 ', 1.30000E-3, 1.51000E-2,   0.25720,    0.00,    0.00,    0.00,  0.00000,  0.00000,  0.00000,  0.00000,1,1,   0.00,   1,1.0000
    55,    56,'1 ', 1.30000E-3, 2.13000E-2,   0.22140,    0.00,    0.00,    0.00,  0.00000,  0.00000,  0.00000,  0.00000,1,1,   0.00,   1,1.0000
    56,    57,'1 ', 8.00000E-4, 1.28000E-2,   0.13420,    0.00,    0.00,    0.00,  0.00000,  0.00000,  0.00000,  0.00000,1,1,   0.00,   1,1.0000
    56,    66,'1 ', 8.00000E-4, 1.29000E-2,   0.13820,    0.00,    0.00,    0.00,  0.00000,  0.00000,  0.00000,  0.00000,1,1,   0.00,   1,1.0000
    57,    58,'1 ', 2.00000E-4, 2.60000E-3,   0.04340,    0.00,    0.00,    0.00,  0.00000,  0.00000,  0.00000,  0.00000,1,1,   0.00,   1,1.0000
    57,    60,'1 ', 8.00000E-4, 1.12000E-2,   0.14760,    0.00,    0.00,    0.00,  0.00000,  0.00000,  0.00000,  0.00000,1,1,   0.00,   1,1.0000
    58,    59,'1 ', 6.00000E-4, 9.20000E-3,   0.11300,    0.00,    0.00,    0.00,  0.00000,  0.00000,  0.00000,  0.00000,1,1,   0.00,   1,1.0000
    58,    63,'1 ', 7.00000E-4, 8.20000E-3,   0.13890,    0.00,    0.00,    0.00,  0.00000,  0.00000,  0.00000,  0.00000,1,1,   0.00,   1,1.0000
    59,    60,'1 ', 4.00000E-4, 4.60000E-3,   0.07800,    0.00,    0.00,    0.00,  0.00000,  0.00000,  0.00000,  0.00000,1,1,   0.00,   1,1.0000
    60,    61,'1 ', 2.30000E-3, 3.63000E-2,   0.38040,    0.00,    0.00,    0.00,  0.00000,  0.00000,  0.00000,  0.00000,1,1,   0.00,   1,1.0000
    62,    63,'1 ', 4.00000E-4, 4.30000E-3,   0.07290,    0.00,    0.00,    0.00,  0.00000,  0.00000,  0.00000,  0.00000,1,1,   0.00,   1,1.0000
    62,    65,'1 ', 4.00000E-4, 4.30000E-3,   0.07290,    0.00,    0.00,    0.00,  0.00000,  0.00000,  0.00000,  0.00000,1,1,   0.00,   1,1.0000
    65,    66,'1 ', 9.00000E-4, 1.01000E-2,   0.17230,    0.00,    0.00,    0.00,  0.00000,  0.00000,  0.00000,  0.00000,1,1,   0.00,   1,1.0000
    66,    67,'1 ', 1.80000E-3, 2.17000E-2,   0.36600,    0.00,    0.00,    0.00,  0.00000,  0.00000,  0.00000,  0.00000,1,1,   0.00,   1,1.0000
    67,    68,'1 ', 9.00000E-4, 9.40000E-3,   0.17100,    0.00,    0.00,    0.00,  0.00000,  0.00000,  0.00000,  0.00000,1,1,   0.00,   1,1.0000
0 / END OF BRANCH DATA, BEGIN TRANSFORMER DATA
     1,    54,     0,'1 ',1,1,1, 0.00000E+0, 0.00000E+0,2,'            ',1,   1,1.0000,   0,1.0000,   0,1.0000,   0,1.0000,'            '
 0.00000E+0, 1.81000E-2,   100.00
1.00000, 138.000,   0.000,     0.00,     0.00,     0.00, 0,      0, 1.50000, 0.51000, 1.50000, 0.51000, 159, 0, 0.00000, 0.00000,  0.000
1.00000, 138.000
     2,    58,     0,'1 ',1,1,1, 0.00000E+0, 0.00000E+0,2,'            ',1,   1,1.0000,   0,1.0000,   0,1.0000,   0,1.0000,'            '
 0.00000E+0, 2.50000E-2,   100.00
1.00000, 138.000,   0.000,     0.00,     0.00,     0.00, 0,      0, 1.50000, 0.51000, 1.50000, 0.51000, 159, 0, 0.00000, 0.00000,  0.000
1.00000, 138.000
     3,    62,     0,'1 ',1,1,1, 0.00000E+0, 0.00000E+0,2,'            ',1,   1,1.0000,   0,1.0000,   0,1.0000,   0,1.0000,'            '
 0.00000E+0, 2.00000E-2,   100.00
1.00000, 138.000,   0.000,     0.00,     0.00,     0.00, 0,      0, 1.50000, 0.51000, 1.50000, 0.51000, 159, 0, 0.00000, 0.00000,  0.000
1.00000, 138.000
     4,    19,     0,'1 ',1,1,1, 0.00000E+0, 0.00000E+0,2,'            ',1,   1,1.0000,   0,1.0000,   0,1.0000,   0,1.0000,'            '
 7.00000E-4, 1.42000E-2,   100.00
1.00000, 138.000,   0.000,     0.00,     0.00,     0.00, 0,      0, 1.50000, 0.51000, 1.50000, 0.51000, 159, 0, 0.00000, 0.00000,  0.000
1.00000, 138.000
     5,    20,     0,'1 ',1,1,1, 0.00000E+0, 0.00000E+0,2,'            ',1,   1,1.0000,   0,1.0000,   0,1.0000,   0,1.0000,'            '
 9.00000E-4, 1.80000E-2,   100.00
1.00000, 138.000,   0.000,     0.00,     0.00,     0.00, 0,      0, 1.50000, 0.51000, 1.50000, 0.51000, 159, 0, 0.00000, 0.00000,  0.000
1.00000, 138.000
     6,    22,     0,'1 ',1,1,1, 0.00000E+0, 0.00000E+0,2,'            ',1,   1,1.0000,   0,1.0000,   0,1.0000,   0,1.0000,'            '
 0.00000E+0, 1.43000E-2,   100.00
1.00000, 138.000,   0.000,     0.00,     0.00,     0.00, 0,      0, 1.50000, 0.51000, 1.50000, 0.51000, 159, 0, 0.00000, 0.00000,  0.000
1.00000, 138.000
     8,    25,     0,'1 ',1,1,1, 0.00000E+0, 0.00000E+0,2,'            ',1,   1,1.0000,   0,1.0000,   0,1.0000,   0,1.0000,'            '
 6.00000E-4, 2.32000E-2,   100.00
1.00000, 138.000,   0.000,     0.00,     0.00,     0.00, 0,      0, 1.50000, 0.51000, 1.50000, 0.51000, 159, 0, 0.00000, 0.00000,  0.000
1.00000, 138.000
     9,    29,     0,'1 ',1,1,1, 0.00000E+0, 0.00000E+0,2,'            ',1,   1,1.0000,   0,1.0000,   0,1.0000,   0,1.0000,'            '
 8.00000E-4, 1.56000E-2,   100.00
1.00000, 138.000,   0.000,     0.00,     0.00,     0.00, 0,      0, 1.50000, 0.51000, 1.50000, 0.51000, 159, 0, 0.00000, 0.00000,  0.000
1.00000, 138.000
    10,    31,     0,'1 ',1,1,1, 0.00000E+0, 0.00000E+0,2,'            ',1,   1,1.0000,   0,1.0000,   0,1.0000,   0,1.0000,'            '
 0.00000E+0, 2.60000E-2,   100.00
1.00000, 138.000,   0.000,     0.00,     0.00,     0.00, 0,      0, 1.50000, 0.51000, 1.50000, 0.51000, 159, 0, 0.00000, 0.00000,  0.000
1.00000, 138.000
    11,    32,     0,'1 ',1,1,1, 0.00000E+0, 0.00000E+0,2,'            ',1,   1,1.0000,   0,1.0000,   0,1.0000,   0,1.0000,'            '
 0.00000E+0, 1.30000E-2,   100.00
1.00000, 138.000,   0.000,     0.00,     0.00,     0.00, 0,      0, 1.50000, 0.51000, 1.50000, 0.51000, 159, 0, 0.00000, 0.00000,  0.000
1.00000, 138.000
    12,    36,     0,'1 ',1,1,1, 0.00000E+0, 0.00000E+0,2,'            ',1,   1,1.0000,   0,1.0000,   0,1.0000,   0,1.0000,'            '
 0.00000E+0, 7.50000E-3,   100.00
1.00000, 138.000,   0.000,     0.00,     0.00,     0.00, 0,      0, 1.50000, 0.51000, 1.50000, 0.51000, 159, 0, 0.00000, 0.00000,  0.000
1.00000, 138.000
    13,    17,     0,'1 ',1,1,1, 0.00000E+0, 0.00000E+0,2,'            ',1,   1,1.0000,   0,1.0000,   0,1.0000,   0,1.0000,'            '
 0.00000E+0, 3.30000E-3,   100.00
1.00000, 138.000,   0.000,     0.00,     0.00,     0.00, 0,      0, 1.50000, 0.51000, 1.50000, 0.51000, 159, 0, 0.00000, 0.00000,  0.000
1.00000, 138.000
    14,    41,     0,'1 ',1,1,1, 0.00000E+0, 0.00000E+0,2,'            ',1,   1,1.0000,   0,1.0000,   0,1.0000,   0,1.0000,'            '
 0.00000E+0, 1.50000E-3,   100.00
1.00000, 138.000,   0.000,     0.00,     0.00,     0.00, 0,      0, 1.50000, 0.51000, 1.50000, 0.51000, 159, 0, 0.00000, 0.00000,  0.000
1.00000, 138.000
    15,    42,     0,'1 ',1,1,1, 0.00000E+0, 0.00000E+0,2,'            ',1,   1,1.0000,   0,1.0000,   0,1.0000,   0,1.0000,'            '
 0.00000E+0, 1.50000E-3,   100.00
1.00000, 138.000,   0.000,     0.00,     0.00,     0.00, 0,      0, 1.50000, 0.51000, 1.50000, 0.51000, 159, 0, 0.00000, 0.00000,  0.000
1.00000, 138.000
    16,    18,     0,'1 ',1,1,1, 0.00000E+0, 0.00000E+0,2,'            ',1,   1,1.0000,   0,1.0000,   0,1.0000,   0,1.0000,'            '
 0.00000E+0, 3.00000E-3,   100.00
1.00000, 138.000,   0.000,     0.00,     0.00,     0.00, 0,      0, 1.50000, 0.51000, 1.50000, 0.51000, 159, 0, 0.00000, 0.00000,  0.000
1.00000, 138.000
    20,    19,     0,'1 ',1,1,1, 0.00000E+0, 0.00000E+0,2,'            ',1,   1,1.0000,   0,1.0000,   0,1.0000,   0,1.0000,'            '
 7.00000E-4, 1.38000E-2,   100.00
1.00000, 138.000,   0.000,     0.00,     0.00,     0.00, 0,      0, 1.50000, 0.51000, 1.50000, 0.51000, 159, 0, 0.00000, 0.00000,  0.000
1.00000, 138.000
    34,    35,     0,'1 ',1,1,1, 0.00000E+0, 0.00000E+0,2,'            ',1,   1,1.0000,   0,1.0000,   0,1.0000,   0,1.0000,'            '
 1.00000E-4, 7.40000E-3,   100.00
1.00000, 138.000,   0.000,     0.00,     0.00,     0.00, 0,      0, 1.50000, 0.51000, 1.50000, 0.51000, 159, 0, 0.00000, 0.00000,  0.000
1.00000, 138.000
    63,    64,     0,'1 ',1,1,1, 0.00000E+0, 0.00000E+0,2,'            ',1,   1,1.0000,   0,1.0000,   0,1.0000,   0,1.0000,'            '
 1.60000E-3, 4.35000E-2,   100.00
1.00000, 138.000,   0.000,     0.00,     0.00,     0.00, 0,      0, 1.50000, 0.51000, 1.50000, 0.51000, 159, 0, 0.00000, 0.00000,  0.000
1.00000, 138.000
    65,    64,     0,'1 ',1,1,1, 0.00000E+0, 0.00000E+0,2,'            ',1,   1,1.0000,   0,1.0000,   0,1.0000,   0,1.0000,'            '
 1.60000E-3, 4.35000E-2,   100.00
1.00000, 138.000,   0.000,     0.00,     0.00,     0.00, 0,      0, 1.50000, 0.51000, 1.50000, 0.51000, 159, 0, 0.00000, 0.00000,  0.000
1.00000, 138.000
0 / END OF TRANSFORMER DATA, BEGIN AREA DATA
   1,     0,     0.000,     1.000,'NETS        '
   2,     0,     0.000,     1.000,'NYPS        '
   3,     0,     0.000,     1.000,'AREA3       '
   4,     0,     0.000,     1.000,'AREA4       '
   5,     0,     0.000,     1.000,'AREA5       '
0 / END OF AREA DATA, BEGIN TWO-TERMINAL DC DATA
0 / END OF TWO-TERMINAL DC DATA, BEGIN VSC DC LINE DATA
0 / END OF VSC DC LINE DATA, BEGIN IMPEDANCE CORRECTION DATA
0 / END OF IMPEDANCE CORRECTION DATA, BEGIN MULTI-TERMINAL DC DATA
0 / END OF MULTI-TERMINAL DC DATA, BEGIN MULTI-SECTION LINE DATA
0 / END OF MULTI-SECTION LINE DATA, BEGIN ZONE DATA
   1,'1           '
0 / END OF ZONE DATA, BEGIN INTER-AREA TRANSFER DATA
0 / END OF INTER-AREA TRANSFER DATA, BEGIN OWNER DATA
   1,'1           '
0 / END OF OWNER DATA, BEGIN FACTS DEVICE DATA
0 / END OF FACTS DEVICE DATA, BEGIN SWITCHED SHUNT DATA
0 / END OF SWITCHED SHUNT DATA, BEGIN GNE DATA
0 / END OF GNE DATA, BEGIN INDUCTION MACHINE DATA
0 / END OF INDUCTION MACHINE DATA
Q
